LAMMPS (7 Aug 2019)
# sample LAMMPS input script for diffusion of 2d LJ liquid
# mean-squared displacement via compute msd

# settings

variable	x equal 20
variable	y equal 20
variable        z equal 20

variable	rho equal 0.6
variable        t equal 1.0
variable	rc equal 2.5

# problem setup

units		lj
dimension	3
atom_style	atomic
neigh_modify	delay 0 every 1

lattice         sc 0.6
Lattice spacing in x,y,z = 1.18563 1.18563 1.18563
region          simbox block 0 $x 0 $y 0 $z
region          simbox block 0 20 0 $y 0 $z
region          simbox block 0 20 0 20 0 $z
region          simbox block 0 20 0 20 0 20
create_box      1 simbox
Created orthogonal box = (0 0 0) to (23.7126 23.7126 23.7126)
create_atoms    1 box
Created 8000 atoms

pair_style      lj/cut 2.5
pair_coeff      * * 1 1

mass            * 1.0
velocity        all create $t 97287
velocity        all create 1 97287

fix             1 all nve
fix	        2 all langevin $t $t 0.1 498094
fix	        2 all langevin 1 $t 0.1 498094
fix	        2 all langevin 1 1 0.1 498094

# equilibration run

thermo          1000
run	        5000
  update every 1 steps, delay 0 steps, check yes
Step Temp E_pair E_mol TotEng Press
0            1   -4.0738092            0   -2.5739967   -2.3602171
Loop time of 23.3882 on 1 procs for 5000 steps with 8000 atoms

unfix		2

# data gathering run

reset_timestep  0

compute         vacf all vacf
fix             4 all ave/time 1 1 1 c_vacf[4] #file tmp.vacf

# factor of 0.33333 is for 3d

fix             5 all vector 1 c_vacf[4]
variable        vacf equal 0.33333*dt*trap(f_5)

thermo_style	custom step temp c_vacf[4] v_vacf

thermo          100
run	        100000
Step Temp c_vacf[4] v_vacf
0    1.0053112    3.0155566            0
Averages over the last 501 of 1001 rows, steps 50000 to 100000:
Temp c_vacf[4] v_vacf
1.00606 0.000818485 0.106651
Loop time of 481.939 on 1 procs for 100000 steps with 8000 atoms
