LAMMPS (7 Aug 2019)
# 3d Lennard-Jones melt

units		lj
atom_style	atomic

lattice		fcc 0.8442
Lattice spacing in x,y,z = 1.6796 1.6796 1.6796
region		box block 0 10 0 10 0 10
create_box	1 box
Created orthogonal box = (0 0 0) to (16.796 16.796 16.796)
create_atoms	1 box
Created 4000 atoms
mass		1 1.0

velocity	all create 3.0 87287

pair_style	lj/cut 2.5
pair_coeff	1 1 1.0 1.0 2.5

neighbor	0.3 bin
neigh_modify	every 20 delay 0 check no

fix		1 all npt temp 1.0 1.0 1.0 iso 0.4 0.4 10.0

dump		id all atom 100 dump.lammpstrj

thermo		100
run		100000
  update every 20 steps, delay 0 steps, check no
Step Temp E_pair E_mol TotEng Press Volume
0            3   -6.7733681            0   -2.2744931   -3.7033504    4738.2137
Averages over the last 501 of 1001 rows, steps 50000 to 100000:
Temp E_pair E_mol TotEng Press Volume
1.00043 -4.39163 0 -2.89136 0.399932 5887.04
Loop time of 236.663 on 1 procs for 100000 steps with 4000 atoms
