LAMMPS (7 Aug 2019)
# 3d Lennard-Jones melt

units		lj
atom_style	atomic

lattice		fcc 0.8
Lattice spacing in x,y,z = 1.70998 1.70998 1.70998
region		box block 0 10 0 10 0 10
create_box	1 box
Created orthogonal box = (0 0 0) to (17.0998 17.0998 17.0998)
create_atoms	1 box
Created 4000 atoms
mass		1 1.0

velocity	all create 3.0 87287

pair_style	lj/cut 2.5
pair_coeff	1 1 1.0 1.0 2.5

thermo_style custom step temp pe etotal press vol

neighbor	0.3 bin
neigh_modify	every 20 delay 0 check no

fix		1 all nvt temp 0.1 0.1 1.0

dump		id all atom 100 dump.lammpstrj

thermo		100
run		10000
  update every 20 steps, delay 0 steps, check no
Step Temp PotEng TotEng Press Volume
0            3   -6.3647465   -1.8658715   -3.8095666         5000
Averages over the last 51 of 101 rows, steps 5000 to 10000:
Temp PotEng TotEng Press Volume
0.100167 -6.78299 -6.63278 -0.904944 5000
Loop time of 24.479 on 1 procs for 10000 steps with 4000 atoms
